[General]
sim-time-limit = 20s
repeat = 1
**.recordScalar = true
**.recordVector = true

[Config Linha]
extends = General
network = TopologiaLinha
description = "Simulação da Topologia em Linha - 7 nós conectados sequencialmente"

[Config Anel]
extends = General
network = TopologiaAnel
description = "Simulação da Topologia em Anel - 7 nós formando um círculo"

[Config Estrela]
extends = General
network = TopologiaEstrela  
description = "Simulação da Topologia em Estrela - 1 nó central conectado a 6 periféricos"

[Config Malha]
extends = General
network = TopologiaMalha
description = "Simulação da Topologia em Malha Parcial - linha com atalhos estratégicos"

[Config Irregular]
extends = General
network = TopologiaIrregular
description = "Simulação da Topologia Irregular - conexões complexas com gargalos"

[Config Complexa]
extends = General
network = TopologiaComplexa
description = "Simulação da Topologia Complexa - estrela + anéis + cruzamentos com 10 nós"
